L24/MASTER-AT.dss
clear
set defaultbasefrequency=60

! ==========================================================================
!  MASTER-AT — subtransmissao com as subestacoes como carga equivalente
! ==========================================================================
!  24 subestacoes | 205 MW agregados
!
!  POR QUE ESTE MODELO EXISTE
!  --------------------------
!  O MASTER-GERAL junta tudo num arquivo so: 2,39 milhoes de elementos na
!  Enel SP, que nao cabem em 15,8 GB de RAM. Este aqui e a metade de cima da
!  decomposicao: a rede de AT inteira, com cada subestacao representada pela
!  demanda que ela de fato tem.
!
!  Sao ~19.500 elementos, menos de 1% do modelo monolitico, e por isso cabe
!  em qualquer maquina e continua cabendo em qualquer distribuidora — o porte
!  dele escala com a subtransmissao, nao com a concessao.
!
!  O QUE ELE MEDE, E QUE HOJE E SUPOSTO
!  ------------------------------------
!  A tensao na barra de MT de cada subestacao. Nos modelos por subestacao ela
!  e DECLARADA (CTMT.TEN_OPE, que na Enel SP e 1,09 em 1.586 dos 1.806
!  alimentadores) e nao calculada. Aqui ela sai do fluxo, com a impedancia da
!  malha de 88 kV e o carregamento dos transformadores de potencia.
!
!  A CARGA EQUIVALENTE E UMA PREMISSA, e esta declarada
!  ---------------------------------------------------
!  Cada subestacao vira uma carga de potencia constante na sua barra de MT.
!  Isso e exato para rede radial abaixo do transformador — que e o caso — a
!  menos do acoplamento: a demanda real depende da tensao, e a tensao depende
!  da demanda. O laco do `decompor.py` resolve isso iterando.
! ==========================================================================

redirect _AT/Fontes.dss
redirect _global/LineCodes.dss
redirect _global/Curvas.dss
redirect _global/_XYCURVES.dss
redirect _AT/Linhas_AT.dss
redirect _AT/Chaves_AT.dss
redirect _AT/Barras_AT.dss
redirect _AT/Trafos_AT.dss
redirect _AT/Cargas_AT.dss
redirect _AT/GD_AT.dss
redirect _AT/Capacitores_AT.dss

! ---------------------- subestacoes como carga equivalente
New Load.SE_1726516 Bus1=195291197.1.2.3 Phases=3 Conn=wye Model=1 kV=13.8000 kW=4178.300 pf=0.92 Vminpu=0.5 Vmaxpu=1.5
New Load.SE_1726518 Bus1=209036233.1.2.3 Phases=3 Conn=wye Model=1 kV=13.8000 kW=14112.700 pf=0.92 Vminpu=0.5 Vmaxpu=1.5
New Load.SE_1726519 Bus1=5195977.1.2.3 Phases=3 Conn=wye Model=1 kV=13.8000 kW=5330.700 pf=0.92 Vminpu=0.5 Vmaxpu=1.5
New Load.SE_1726520 Bus1=2543303595.1.2.3 Phases=3 Conn=wye Model=1 kV=13.8000 kW=18099.300 pf=0.92 Vminpu=0.5 Vmaxpu=1.5
New Load.SE_1726521 Bus1=2563944024.1.2.3 Phases=3 Conn=wye Model=1 kV=13.8000 kW=2726.800 pf=0.92 Vminpu=0.5 Vmaxpu=1.5
New Load.SE_1726522 Bus1=11851801.1.2.3 Phases=3 Conn=wye Model=1 kV=13.8000 kW=14812.200 pf=0.92 Vminpu=0.5 Vmaxpu=1.5
New Load.SE_1726523 Bus1=193900302.1.2.3 Phases=3 Conn=wye Model=1 kV=13.8000 kW=3413.500 pf=0.92 Vminpu=0.5 Vmaxpu=1.5
New Load.SE_1726524 Bus1=11413474.1.2.3 Phases=3 Conn=wye Model=1 kV=13.8000 kW=18398.100 pf=0.92 Vminpu=0.5 Vmaxpu=1.5
New Load.SE_1726525 Bus1=192976850.1.2.3 Phases=3 Conn=wye Model=1 kV=13.8000 kW=4539.100 pf=0.92 Vminpu=0.5 Vmaxpu=1.5
New Load.SE_1726526 Bus1=2662022913.1.2.3 Phases=3 Conn=wye Model=1 kV=13.8000 kW=29677.500 pf=0.92 Vminpu=0.5 Vmaxpu=1.5
New Load.SE_1726527 Bus1=segm_2720471513.1.2.3 Phases=3 Conn=wye Model=1 kV=13.8000 kW=1223.000 pf=0.92 Vminpu=0.5 Vmaxpu=1.5
New Load.SE_1726528 Bus1=629071038.1.2.3 Phases=3 Conn=wye Model=1 kV=13.8000 kW=10993.800 pf=0.92 Vminpu=0.5 Vmaxpu=1.5
New Load.SE_1726529 Bus1=195239683.1.2.3 Phases=3 Conn=wye Model=1 kV=13.8000 kW=5730.900 pf=0.92 Vminpu=0.5 Vmaxpu=1.5
New Load.SE_1726530 Bus1=11078770.1.2.3 Phases=3 Conn=wye Model=1 kV=13.8000 kW=2712.500 pf=0.92 Vminpu=0.5 Vmaxpu=1.5
New Load.SE_1726531 Bus1=2634380465.1.2.3 Phases=3 Conn=wye Model=1 kV=13.8000 kW=1445.900 pf=0.92 Vminpu=0.5 Vmaxpu=1.5
New Load.SE_1726532 Bus1=5088714.1.2.3 Phases=3 Conn=wye Model=1 kV=13.8000 kW=5160.500 pf=0.92 Vminpu=0.5 Vmaxpu=1.5
New Load.SE_1726533 Bus1=2758714662.1.2.3 Phases=3 Conn=wye Model=1 kV=13.8000 kW=4886.600 pf=0.92 Vminpu=0.5 Vmaxpu=1.5
New Load.SE_1726534 Bus1=2710294481.1.2.3 Phases=3 Conn=wye Model=1 kV=13.8000 kW=5611.500 pf=0.92 Vminpu=0.5 Vmaxpu=1.5
New Load.SE_1726535 Bus1=198160087.1.2.3 Phases=3 Conn=wye Model=1 kV=13.8000 kW=4328.700 pf=0.92 Vminpu=0.5 Vmaxpu=1.5
New Load.SE_1726536 Bus1=11993164.1.2.3 Phases=3 Conn=wye Model=1 kV=34.5000 kW=2583.000 pf=0.92 Vminpu=0.5 Vmaxpu=1.5
New Load.SE_1726537 Bus1=11384649.1.2.3 Phases=3 Conn=wye Model=1 kV=13.8000 kW=5047.700 pf=0.92 Vminpu=0.5 Vmaxpu=1.5
New Load.SE_1726538 Bus1=695739671.1.2.3 Phases=3 Conn=wye Model=1 kV=13.8000 kW=6536.300 pf=0.92 Vminpu=0.5 Vmaxpu=1.5
New Load.SE_1726539 Bus1=10164267.1.2.3 Phases=3 Conn=wye Model=1 kV=13.8000 kW=26856.300 pf=0.92 Vminpu=0.5 Vmaxpu=1.5
New Load.SE_1726540 Bus1=5144376.1.2.3 Phases=3 Conn=wye Model=1 kV=13.8000 kW=7031.800 pf=0.92 Vminpu=0.5 Vmaxpu=1.5

Set Voltagebases=[138 88 34.5 13.8 0.44 0.38 0.24 0.23 0.22 0.208]
CalcVoltagebases

Set maxcontroliter=200
Set maxiterations=100
Set controlmode=static

Set mode=snap
Solve
CalcVoltagebases
Solve
Buscoords _AT/BusCoords_AT.dat
