L24/_AT/Chaves_AT.dss
! ==========================================================
! CHAVES E DISJUNTORES DE AT — UNSEAT
! P_N_OPE = A -> normalmente aberta (comando Open no fim)
! ==========================================================
New Line.ATSW_1686026656 phases=3 Bus1=segm_3372053312.1.2.3 Bus2=segm_5058079968.1.2.3 Switch=y r1=1e-4 r0=1e-4 x1=0 x0=0 c1=0 c0=0
New Line.ATSW_1222123951 phases=3 Bus1=node_2741406744.1.2.3 Bus2=node_2741406745.1.2.3 Switch=y r1=1e-4 r0=1e-4 x1=0 x0=0 c1=0 c0=0
New Line.ATSW_1094743523 phases=3 Bus1=node_2741406524.1.2.3 Bus2=node_2741406525.1.2.3 Switch=y r1=1e-4 r0=1e-4 x1=0 x0=0 c1=0 c0=0
New Line.ATSW_1094743539 phases=3 Bus1=node_2741406478.1.2.3 Bus2=node_2741406479.1.2.3 Switch=y r1=1e-4 r0=1e-4 x1=0 x0=0 c1=0 c0=0
New Line.ATSW_1808620189 phases=3 Bus1=segm_2543302966.1.2.3 Bus2=segm_1808620164.1.2.3 Switch=y r1=1e-4 r0=1e-4 x1=0 x0=0 c1=0 c0=0
New Line.ATSW_2052072579 phases=3 Bus1=segm_2577981600.1.2.3 Bus2=segm_2577981607.1.2.3 Switch=y r1=1e-4 r0=1e-4 x1=0 x0=0 c1=0 c0=0
New Line.ATSW_785475690 phases=3 Bus1=segm_193655117.1.2.3 Bus2=segm_2543302994.1.2.3 Switch=y r1=1e-4 r0=1e-4 x1=0 x0=0 c1=0 c0=0
New Line.ATSW_1808620215 phases=3 Bus1=segm_2543302903.1.2.3 Bus2=segm_2543302966.1.2.3 Switch=y r1=1e-4 r0=1e-4 x1=0 x0=0 c1=0 c0=0
New Line.ATSW_11414876 phases=3 Bus1=segm_11414075.1.2.3 Bus2=segm_2577981705.1.2.3 Switch=y r1=1e-4 r0=1e-4 x1=0 x0=0 c1=0 c0=0
New Line.ATSW_6643225 phases=3 Bus1=100_637388505.1.2.3 Bus2=segm_6642910.1.2.3 Switch=y r1=1e-4 r0=1e-4 x1=0 x0=0 c1=0 c0=0
New Line.ATSW_11415396 phases=3 Bus1=segm_11414068.1.2.3 Bus2=segm_2577981705.1.2.3 Switch=y r1=1e-4 r0=1e-4 x1=0 x0=0 c1=0 c0=0
New Line.ATSW_1686026602 phases=3 Bus1=segm_11414075.1.2.3 Bus2=segm_2577981656.1.2.3 Switch=y r1=1e-4 r0=1e-4 x1=0 x0=0 c1=0 c0=0
New Line.ATSW_1686026270 phases=3 Bus1=segm_2577981572.1.2.3 Bus2=segm_11413525.1.2.3 Switch=y r1=1e-4 r0=1e-4 x1=0 x0=0 c1=0 c0=0
New Line.ATSW_1686026294 phases=3 Bus1=segm_2577981565.1.2.3 Bus2=segm_2577981572.1.2.3 Switch=y r1=1e-4 r0=1e-4 x1=0 x0=0 c1=0 c0=0
New Line.ATSW_11414864 phases=3 Bus1=segm_11414075.1.2.3 Bus2=100_583339946.1.2.3 Switch=y r1=1e-4 r0=1e-4 x1=0 x0=0 c1=0 c0=0
New Line.ATSW_1041780650 phases=3 Bus1=segm_1041780490.1.2.3 Bus2=segm_2662482676.1.2.3 Switch=y r1=1e-4 r0=1e-4 x1=0 x0=0 c1=0 c0=0
New Line.ATSW_1041780637 phases=3 Bus1=segm_1041780490.1.2.3 Bus2=segm_2662482655.1.2.3 Switch=y r1=1e-4 r0=1e-4 x1=0 x0=0 c1=0 c0=0
New Line.ATSW_1041780611 phases=3 Bus1=segm_2662482697.1.2.3 Bus2=segm_1041780490.1.2.3 Switch=y r1=1e-4 r0=1e-4 x1=0 x0=0 c1=0 c0=0
New Line.ATSW_1041780572 phases=3 Bus1=segm_2662482655.1.2.3 Bus2=segm_1108295054.1.2.3 Switch=y r1=1e-4 r0=1e-4 x1=0 x0=0 c1=0 c0=0
New Line.ATSW_1041780702 phases=3 Bus1=segm_11078642.1.2.3 Bus2=100_1245066771.1.2.3 Switch=y r1=1e-4 r0=1e-4 x1=0 x0=0 c1=0 c0=0
New Line.ATSW_1041780676 phases=3 Bus1=segm_11078642.1.2.3 Bus2=100_622166289.1.2.3 Switch=y r1=1e-4 r0=1e-4 x1=0 x0=0 c1=0 c0=0
New Line.ATSW_1041780585 phases=3 Bus1=segm_2662482676.1.2.3 Bus2=segm_1108295089.1.2.3 Switch=y r1=1e-4 r0=1e-4 x1=0 x0=0 c1=0 c0=0
New Line.ATSW_1041780663 phases=3 Bus1=segm_11078642.1.2.3 Bus2=segm_2662482704.1.2.3 Switch=y r1=1e-4 r0=1e-4 x1=0 x0=0 c1=0 c0=0
New Line.ATSW_1537501641 phases=3 Bus1=segm_2664603952.1.2.3 Bus2=segm_423646179.1.2.3 Switch=y r1=1e-4 r0=1e-4 x1=0 x0=0 c1=0 c0=0
New Line.ATSW_1591791750 phases=3 Bus1=segm_423646179.1.2.3 Bus2=segm_2664604022.1.2.3 Switch=y r1=1e-4 r0=1e-4 x1=0 x0=0 c1=0 c0=0
New Line.ATSW_1591791737 phases=3 Bus1=segm_2664604022.1.2.3 Bus2=segm_2664604029.1.2.3 Switch=y r1=1e-4 r0=1e-4 x1=0 x0=0 c1=0 c0=0
New Line.ATSW_1591791771 phases=3 Bus1=segm_423646179.1.2.3 Bus2=segm_2664603924.1.2.3 Switch=y r1=1e-4 r0=1e-4 x1=0 x0=0 c1=0 c0=0
New Line.ATSW_1591791786 phases=3 Bus1=segm_2664603924.1.2.3 Bus2=segm_1537501734.1.2.3 Switch=y r1=1e-4 r0=1e-4 x1=0 x0=0 c1=0 c0=0
New Line.ATSW_5140126 phases=3 Bus1=segm_423646179.1.2.3 Bus2=segm_663079491.1.2.3 Switch=y r1=1e-4 r0=1e-4 x1=0 x0=0 c1=0 c0=0
New Line.ATSW_1537501666 phases=3 Bus1=segm_1537501769.1.2.3 Bus2=segm_2664603952.1.2.3 Switch=y r1=1e-4 r0=1e-4 x1=0 x0=0 c1=0 c0=0
New Line.ATSW_1591791732 phases=3 Bus1=segm_2664604029.1.2.3 Bus2=segm_5139943.1.2.3 Switch=y r1=1e-4 r0=1e-4 x1=0 x0=0 c1=0 c0=0
New Line.ATSW_11414888 phases=3 Bus1=segm_1686026682.1.2.3 Bus2=segm_2577981733.1.2.3 Switch=y r1=1e-4 r0=1e-4 x1=0 x0=0 c1=0 c0=0
New Line.ATSW_1686026571 phases=3 Bus1=segm_11414786.1.2.3 Bus2=segm_2577981635.1.2.3 Switch=y r1=1e-4 r0=1e-4 x1=0 x0=0 c1=0 c0=0
New Line.ATSW_1686026590 phases=3 Bus1=segm_2577981663.1.2.3 Bus2=segm_11414075.1.2.3 Switch=y r1=1e-4 r0=1e-4 x1=0 x0=0 c1=0 c0=0
New Line.ATSW_11414828 phases=3 Bus1=segm_11414075.1.2.3 Bus2=segm_2577981733.1.2.3 Switch=y r1=1e-4 r0=1e-4 x1=0 x0=0 c1=0 c0=0
New Line.ATSW_1686026559 phases=3 Bus1=segm_11414786.1.2.3 Bus2=segm_2577981642.1.2.3 Switch=y r1=1e-4 r0=1e-4 x1=0 x0=0 c1=0 c0=0
New Line.ATSW_11414816 phases=3 Bus1=segm_11414075.1.2.3 Bus2=100_580707696.1.2.3 Switch=y r1=1e-4 r0=1e-4 x1=0 x0=0 c1=0 c0=0
New Line.ATSW_1686026282 phases=3 Bus1=segm_11413473.1.2.3 Bus2=segm_2577981565.1.2.3 Switch=y r1=1e-4 r0=1e-4 x1=0 x0=0 c1=0 c0=0
New Line.ATSW_12126502 phases=3 Bus1=segm_2634380471.1.2.3 Bus2=segm_12126290.1.2.3 Switch=y r1=1e-4 r0=1e-4 x1=0 x0=0 c1=0 c0=0
New Line.ATSW_12126447 phases=3 Bus1=segm_12126269.1.2.3 Bus2=segm_2634380485.1.2.3 Switch=y r1=1e-4 r0=1e-4 x1=0 x0=0 c1=0 c0=0
New Line.ATSW_11770422 phases=3 Bus1=segm_11770351.1.2.3 Bus2=segm_2720471782.1.2.3 Switch=y r1=1e-4 r0=1e-4 x1=0 x0=0 c1=0 c0=0
New Line.ATSW_11770410 phases=3 Bus1=segm_2720471786.1.2.3 Bus2=100_695975828.1.2.3 Switch=y r1=1e-4 r0=1e-4 x1=0 x0=0 c1=0 c0=0
New Line.ATSW_1041780559 phases=3 Bus1=segm_2662482784.1.2.3 Bus2=segm_1108295019.1.2.3 Switch=y r1=1e-4 r0=1e-4 x1=0 x0=0 c1=0 c0=0
New Line.ATSW_1041780689 phases=3 Bus1=segm_11079195.1.2.3 Bus2=segm_11078642.1.2.3 Switch=y r1=1e-4 r0=1e-4 x1=0 x0=0 c1=0 c0=0
New Line.ATSW_1041780546 phases=3 Bus1=segm_2662482704.1.2.3 Bus2=segm_2662482697.1.2.3 Switch=y r1=1e-4 r0=1e-4 x1=0 x0=0 c1=0 c0=0
New Line.ATSW_1041780624 phases=3 Bus1=segm_1041780490.1.2.3 Bus2=segm_2662482784.1.2.3 Switch=y r1=1e-4 r0=1e-4 x1=0 x0=0 c1=0 c0=0
New Line.ATSW_1041780598 phases=3 Bus1=segm_11078656.1.2.3 Bus2=segm_1041780490.1.2.3 Switch=y r1=1e-4 r0=1e-4 x1=0 x0=0 c1=0 c0=0
New Line.ATSW_1369064660 phases=3 Bus1=segm_1369064687.1.2.3 Bus2=segm_1369064661.1.2.3 Switch=y r1=1e-4 r0=1e-4 x1=0 x0=0 c1=0 c0=0
New Line.ATSW_1369064647 phases=3 Bus1=segm_10164051.1.2.3 Bus2=segm_1369064661.1.2.3 Switch=y r1=1e-4 r0=1e-4 x1=0 x0=0 c1=0 c0=0
New Line.ATSW_1369064673 phases=3 Bus1=segm_10163978.1.2.3 Bus2=segm_1369064674.1.2.3 Switch=y r1=1e-4 r0=1e-4 x1=0 x0=0 c1=0 c0=0
New Line.ATSW_526461606 phases=3 Bus1=segm_2543302854.1.2.3 Bus2=segm_193655387.1.2.3 Switch=y r1=1e-4 r0=1e-4 x1=0 x0=0 c1=0 c0=0
New Line.ATSW_526461727 phases=3 Bus1=segm_2543302854.1.2.3 Bus2=segm_2543302861.1.2.3 Switch=y r1=1e-4 r0=1e-4 x1=0 x0=0 c1=0 c0=0
New Line.ATSW_1808620252 phases=3 Bus1=segm_2543302903.1.2.3 Bus2=segm_193655387.1.2.3 Switch=y r1=1e-4 r0=1e-4 x1=0 x0=0 c1=0 c0=0
New Line.ATSW_1808620229 phases=3 Bus1=segm_2543302903.1.2.3 Bus2=100_1978928551.1.2.3 Switch=y r1=1e-4 r0=1e-4 x1=0 x0=0 c1=0 c0=0
New Line.ATSW_526461922 phases=3 Bus1=segm_2543302854.1.2.3 Bus2=segm_526461583.1.2.3 Switch=y r1=1e-4 r0=1e-4 x1=0 x0=0 c1=0 c0=0
New Line.ATSW_785475664 phases=3 Bus1=segm_2543303001.1.2.3 Bus2=segm_193655387.1.2.3 Switch=y r1=1e-4 r0=1e-4 x1=0 x0=0 c1=0 c0=0
New Line.ATSW_526461618 phases=3 Bus1=segm_193655117.1.2.3 Bus2=segm_2543302854.1.2.3 Switch=y r1=1e-4 r0=1e-4 x1=0 x0=0 c1=0 c0=0
New Line.ATSW_1808620258 phases=3 Bus1=segm_193655117.1.2.3 Bus2=segm_2543302903.1.2.3 Switch=y r1=1e-4 r0=1e-4 x1=0 x0=0 c1=0 c0=0
New Line.ATSW_526461714 phases=3 Bus1=segm_526461728.1.2.3 Bus2=segm_2543302861.1.2.3 Switch=y r1=1e-4 r0=1e-4 x1=0 x0=0 c1=0 c0=0
New Line.ATSW_785475677 phases=3 Bus1=segm_2543302994.1.2.3 Bus2=segm_2543303001.1.2.3 Switch=y r1=1e-4 r0=1e-4 x1=0 x0=0 c1=0 c0=0
New Line.ATSW_11414306 phases=3 Bus1=segm_11413486.1.2.3 Bus2=segm_2577981586.1.2.3 Switch=y r1=1e-4 r0=1e-4 x1=0 x0=0 c1=0 c0=0
New Line.ATSW_11414330 phases=3 Bus1=segm_2577981530.1.2.3 Bus2=segm_11413563.1.2.3 Switch=y r1=1e-4 r0=1e-4 x1=0 x0=0 c1=0 c0=0
New Line.ATSW_11414804 phases=3 Bus1=segm_11414786.1.2.3 Bus2=segm_2577981621.1.2.3 Switch=y r1=1e-4 r0=1e-4 x1=0 x0=0 c1=0 c0=0
New Line.ATSW_10164738 phases=3 Bus1=segm_10164739.1.2.3 Bus2=segm_10164711.1.2.3 Switch=y r1=1e-4 r0=1e-4 x1=0 x0=0 c1=0 c0=0
New Line.ATSW_10164858 phases=3 Bus1=segm_10164036.1.2.3 Bus2=segm_10164847.1.2.3 Switch=y r1=1e-4 r0=1e-4 x1=0 x0=0 c1=0 c0=0
New Line.ATSW_10164834 phases=3 Bus1=segm_10164823.1.2.3 Bus2=segm_10164081.1.2.3 Switch=y r1=1e-4 r0=1e-4 x1=0 x0=0 c1=0 c0=0
New Line.ATSW_10164750 phases=3 Bus1=segm_1032178849.1.2.3 Bus2=segm_10164174.1.2.3 Switch=y r1=1e-4 r0=1e-4 x1=0 x0=0 c1=0 c0=0
New Line.ATSW_10164901 phases=3 Bus1=segm_10164902.1.2.3 Bus2=segm_10164730.1.2.3 Switch=y r1=1e-4 r0=1e-4 x1=0 x0=0 c1=0 c0=0
New Line.ATSW_10164810 phases=3 Bus1=segm_10164799.1.2.3 Bus2=segm_10164112.1.2.3 Switch=y r1=1e-4 r0=1e-4 x1=0 x0=0 c1=0 c0=0
New Line.ATSW_10164998 phases=3 Bus1=segm_10164987.1.2.3 Bus2=segm_10164999.1.2.3 Switch=y r1=1e-4 r0=1e-4 x1=0 x0=0 c1=0 c0=0
New Line.ATSW_10164786 phases=3 Bus1=segm_10164775.1.2.3 Bus2=segm_10164143.1.2.3 Switch=y r1=1e-4 r0=1e-4 x1=0 x0=0 c1=0 c0=0
New Line.ATSW_10164687 phases=3 Bus1=segm_10164711.1.2.3 Bus2=segm_10163978.1.2.3 Switch=y r1=1e-4 r0=1e-4 x1=0 x0=0 c1=0 c0=0
New Line.ATSW_10164718 phases=3 Bus1=segm_10164051.1.2.3 Bus2=segm_10164739.1.2.3 Switch=y r1=1e-4 r0=1e-4 x1=0 x0=0 c1=0 c0=0
New Line.ATSW_10164639 phases=3 Bus1=segm_10163978.1.2.3 Bus2=100_637598898.1.2.3 Switch=y r1=1e-4 r0=1e-4 x1=0 x0=0 c1=0 c0=0
New Line.ATSW_10164889 phases=3 Bus1=segm_10164051.1.2.3 Bus2=segm_10164902.1.2.3 Switch=y r1=1e-4 r0=1e-4 x1=0 x0=0 c1=0 c0=0
New Line.ATSW_10164822 phases=3 Bus1=segm_10164051.1.2.3 Bus2=segm_10164823.1.2.3 Switch=y r1=1e-4 r0=1e-4 x1=0 x0=0 c1=0 c0=0
New Line.ATSW_10164967 phases=3 Bus1=segm_10164245.1.2.3 Bus2=segm_10164259.1.2.3 Switch=y r1=1e-4 r0=1e-4 x1=0 x0=0 c1=0 c0=0
New Line.ATSW_10164986 phases=3 Bus1=segm_10164245.1.2.3 Bus2=segm_10164987.1.2.3 Switch=y r1=1e-4 r0=1e-4 x1=0 x0=0 c1=0 c0=0
New Line.ATSW_10164955 phases=3 Bus1=segm_10164245.1.2.3 Bus2=segm_10164273.1.2.3 Switch=y r1=1e-4 r0=1e-4 x1=0 x0=0 c1=0 c0=0
New Line.ATSW_10164615 phases=3 Bus1=segm_10163978.1.2.3 Bus2=100_1891889380.1.2.3 Switch=y r1=1e-4 r0=1e-4 x1=0 x0=0 c1=0 c0=0
New Line.ATSW_10164762 phases=3 Bus1=segm_10164051.1.2.3 Bus2=segm_1032178849.1.2.3 Switch=y r1=1e-4 r0=1e-4 x1=0 x0=0 c1=0 c0=0
New Line.ATSW_10164798 phases=3 Bus1=segm_10164051.1.2.3 Bus2=segm_10164799.1.2.3 Switch=y r1=1e-4 r0=1e-4 x1=0 x0=0 c1=0 c0=0
New Line.ATSW_10164675 phases=3 Bus1=segm_10163978.1.2.3 Bus2=segm_10164245.1.2.3 Switch=y r1=1e-4 r0=1e-4 x1=0 x0=0 c1=0 c0=0
New Line.ATSW_10164846 phases=3 Bus1=segm_10164847.1.2.3 Bus2=segm_10164051.1.2.3 Switch=y r1=1e-4 r0=1e-4 x1=0 x0=0 c1=0 c0=0
New Line.ATSW_10164627 phases=3 Bus1=segm_10163978.1.2.3 Bus2=100_637083631.1.2.3 Switch=y r1=1e-4 r0=1e-4 x1=0 x0=0 c1=0 c0=0
New Line.ATSW_10164651 phases=3 Bus1=segm_10163978.1.2.3 Bus2=100_637388492.1.2.3 Switch=y r1=1e-4 r0=1e-4 x1=0 x0=0 c1=0 c0=0
New Line.ATSW_10164870 phases=3 Bus1=segm_10164051.1.2.3 Bus2=segm_10164245.1.2.3 Switch=y r1=1e-4 r0=1e-4 x1=0 x0=0 c1=0 c0=0
New Line.ATSW_10164774 phases=3 Bus1=segm_10164051.1.2.3 Bus2=segm_10164775.1.2.3 Switch=y r1=1e-4 r0=1e-4 x1=0 x0=0 c1=0 c0=0
New Line.ATSW_406573121 phases=3 Bus1=segm_2571269473.1.2.3 Bus2=segm_198160236.1.2.3 Switch=y r1=1e-4 r0=1e-4 x1=0 x0=0 c1=0 c0=0
New Line.ATSW_198160193 phases=3 Bus1=segm_406573106.1.2.3 Bus2=segm_2571269501.1.2.3 Switch=y r1=1e-4 r0=1e-4 x1=0 x0=0 c1=0 c0=0
New Line.ATSW_198160235 phases=3 Bus1=segm_406573106.1.2.3 Bus2=segm_2571269473.1.2.3 Switch=y r1=1e-4 r0=1e-4 x1=0 x0=0 c1=0 c0=0
New Line.ATSW_406573103 phases=3 Bus1=segm_2571269501.1.2.3 Bus2=segm_198160196.1.2.3 Switch=y r1=1e-4 r0=1e-4 x1=0 x0=0 c1=0 c0=0
New Line.ATSW_406573139 phases=3 Bus1=segm_198160172.1.2.3 Bus2=segm_406573106.1.2.3 Switch=y r1=1e-4 r0=1e-4 x1=0 x0=0 c1=0 c0=0
New Line.ATSW_198160247 phases=3 Bus1=segm_406573106.1.2.3 Bus2=100_695585074.1.2.3 Switch=y r1=1e-4 r0=1e-4 x1=0 x0=0 c1=0 c0=0
New Line.ATSW_11414274 phases=3 Bus1=segm_2577981586.1.2.3 Bus2=segm_11413473.1.2.3 Switch=y r1=1e-4 r0=1e-4 x1=0 x0=0 c1=0 c0=0
New Line.ATSW_11414262 phases=3 Bus1=segm_11413525.1.2.3 Bus2=segm_11413558.1.2.3 Switch=y r1=1e-4 r0=1e-4 x1=0 x0=0 c1=0 c0=0
New Line.ATSW_11414785 phases=3 Bus1=segm_11414786.1.2.3 Bus2=segm_2577981628.1.2.3 Switch=y r1=1e-4 r0=1e-4 x1=0 x0=0 c1=0 c0=0
New Line.ATSW_11414293 phases=3 Bus1=segm_11413473.1.2.3 Bus2=segm_2577981600.1.2.3 Switch=y r1=1e-4 r0=1e-4 x1=0 x0=0 c1=0 c0=0
New Line.ATSW_11414773 phases=3 Bus1=segm_11413473.1.2.3 Bus2=segm_2577981530.1.2.3 Switch=y r1=1e-4 r0=1e-4 x1=0 x0=0 c1=0 c0=0
New Line.ATSW_11414250 phases=3 Bus1=segm_11413525.1.2.3 Bus2=segm_11414786.1.2.3 Switch=y r1=1e-4 r0=1e-4 x1=0 x0=0 c1=0 c0=0
New Line.ATSW_11414747 phases=3 Bus1=segm_11413473.1.2.3 Bus2=segm_11414786.1.2.3 Switch=y r1=1e-4 r0=1e-4 x1=0 x0=0 c1=0 c0=0
New Line.ATSW_5144618 phases=3 Bus1=segm_5144274.1.2.3 Bus2=segm_5144348.1.2.3 Switch=y r1=1e-4 r0=1e-4 x1=0 x0=0 c1=0 c0=0
New Line.ATSW_5144631 phases=1 Bus1=segm_5144348.3 Bus2=segm_5144369.3 Switch=y r1=1e-4 r0=1e-4 x1=0 x0=0 c1=0 c0=0
New Line.ATSW_11869275 phases=3 Bus1=100_696074601.1.2.3 Bus2=segm_11868660.1.2.3 Switch=y r1=1e-4 r0=1e-4 x1=0 x0=0 c1=0 c0=0
New Line.ATSW_195239963 phases=3 Bus1=segm_195239836.1.2.3 Bus2=segm_195239982.1.2.3 Switch=y r1=1e-4 r0=1e-4 x1=0 x0=0 c1=0 c0=0
New Line.ATSW_195239979 phases=3 Bus1=segm_195239982.1.2.3 Bus2=segm_195239638.1.2.3 Switch=y r1=1e-4 r0=1e-4 x1=0 x0=0 c1=0 c0=0
New Line.ATSW_195240018 phases=3 Bus1=segm_195239638.1.2.3 Bus2=segm_195239669.1.2.3 Switch=y r1=1e-4 r0=1e-4 x1=0 x0=0 c1=0 c0=0
New Line.ATSW_189565083 phases=3 Bus1=segm_2544650843.1.2.3 Bus2=segm_189564959.1.2.3 Switch=y r1=1e-4 r0=1e-4 x1=0 x0=0 c1=0 c0=0
New Line.ATSW_189565064 phases=3 Bus1=segm_2544650581.1.2.3 Bus2=segm_417733556.1.2.3 Switch=y r1=1e-4 r0=1e-4 x1=0 x0=0 c1=0 c0=0
New Line.ATSW_189564915 phases=3 Bus1=segm_189564875.1.2.3 Bus2=segm_2544650581.1.2.3 Switch=y r1=1e-4 r0=1e-4 x1=0 x0=0 c1=0 c0=0
New Line.ATSW_189564033 phases=3 Bus1=segm_189563875.1.2.3 Bus2=segm_189564025.1.2.3 Switch=y r1=1e-4 r0=1e-4 x1=0 x0=0 c1=0 c0=0
New Line.ATSW_193900196 phases=3 Bus1=segm_2744218629.1.2.3 Bus2=segm_2744218643.1.2.3 Switch=y r1=1e-4 r0=1e-4 x1=0 x0=0 c1=0 c0=0
New Line.ATSW_193900061 phases=3 Bus1=segm_193900083.1.2.3 Bus2=segm_193900025.1.2.3 Switch=y r1=1e-4 r0=1e-4 x1=0 x0=0 c1=0 c0=0
New Line.ATSW_193900257 phases=1 Bus1=segm_193899923.3 Bus2=segm_193900260.3 Switch=y r1=1e-4 r0=1e-4 x1=0 x0=0 c1=0 c0=0
New Line.ATSW_193900231 phases=3 Bus1=segm_2744218643.1.2.3 Bus2=segm_193900170.1.2.3 Switch=y r1=1e-4 r0=1e-4 x1=0 x0=0 c1=0 c0=0
New Line.ATSW_193900045 phases=3 Bus1=segm_2744218664.1.2.3 Bus2=segm_193899923.1.2.3 Switch=y r1=1e-4 r0=1e-4 x1=0 x0=0 c1=0 c0=0
New Line.ATSW_193900080 phases=3 Bus1=segm_193900083.1.2.3 Bus2=segm_193899923.1.2.3 Switch=y r1=1e-4 r0=1e-4 x1=0 x0=0 c1=0 c0=0
New Line.ATSW_193900212 phases=3 Bus1=segm_193900083.1.2.3 Bus2=segm_2744218629.1.2.3 Switch=y r1=1e-4 r0=1e-4 x1=0 x0=0 c1=0 c0=0
New Line.ATSW_193900180 phases=3 Bus1=segm_193900083.1.2.3 Bus2=segm_193900170.1.2.3 Switch=y r1=1e-4 r0=1e-4 x1=0 x0=0 c1=0 c0=0
New Line.ATSW_189563986 phases=3 Bus1=segm_189563907.1.2.3 Bus2=segm_189563894.1.2.3 Switch=y r1=1e-4 r0=1e-4 x1=0 x0=0 c1=0 c0=0
New Line.ATSW_189564903 phases=3 Bus1=100_612977113.1.2.3 Bus2=100_1094743522.1.2.3 Switch=y r1=1e-4 r0=1e-4 x1=0 x0=0 c1=0 c0=0
New Line.ATSW_189564049 phases=3 Bus1=segm_189563875.1.2.3 Bus2=segm_189563950.1.2.3 Switch=y r1=1e-4 r0=1e-4 x1=0 x0=0 c1=0 c0=0
New Line.ATSW_189563967 phases=3 Bus1=segm_189563907.1.2.3 Bus2=segm_189563875.1.2.3 Switch=y r1=1e-4 r0=1e-4 x1=0 x0=0 c1=0 c0=0
New Line.ATSW_189564958 phases=3 Bus1=segm_189564875.1.2.3 Bus2=segm_2544650843.1.2.3 Switch=y r1=1e-4 r0=1e-4 x1=0 x0=0 c1=0 c0=0
New Line.ATSW_189564872 phases=3 Bus1=segm_189564875.1.2.3 Bus2=segm_881936131.1.2.3 Switch=y r1=1e-4 r0=1e-4 x1=0 x0=0 c1=0 c0=0
New Line.ATSW_189564013 phases=3 Bus1=segm_189564014.1.2.3 Bus2=segm_189563875.1.2.3 Switch=y r1=1e-4 r0=1e-4 x1=0 x0=0 c1=0 c0=0
New Line.ATSW_189565096 phases=1 Bus1=segm_189563907.1 Bus2=segm_189563957.1 Switch=y r1=1e-4 r0=1e-4 x1=0 x0=0 c1=0 c0=0
New Line.ATSW_189564891 phases=3 Bus1=segm_189564892.1.2.3 Bus2=segm_189564875.1.2.3 Switch=y r1=1e-4 r0=1e-4 x1=0 x0=0 c1=0 c0=0
New Line.ATSW_11851788 phases=3 Bus1=segm_11851457.1.2.3 Bus2=segm_2670800267.1.2.3 Switch=y r1=1e-4 r0=1e-4 x1=0 x0=0 c1=0 c0=0
New Line.ATSW_11731665 phases=3 Bus1=segm_11731673.1.2.3 Bus2=segm_11731231.1.2.3 Switch=y r1=1e-4 r0=1e-4 x1=0 x0=0 c1=0 c0=0
New Line.ATSW_11731684 phases=1 Bus1=segm_2751219485.1 Bus2=segm_11731685.1 Switch=y r1=1e-4 r0=1e-4 x1=0 x0=0 c1=0 c0=0
New Line.ATSW_11731601 phases=3 Bus1=segm_11731231.1.2.3 Bus2=segm_2751219485.1.2.3 Switch=y r1=1e-4 r0=1e-4 x1=0 x0=0 c1=0 c0=0
New Line.ATSW_423646143 phases=3 Bus1=segm_2664604008.1.2.3 Bus2=segm_423646116.1.2.3 Switch=y r1=1e-4 r0=1e-4 x1=0 x0=0 c1=0 c0=0
New Line.ATSW_629071087 phases=3 Bus1=segm_663079491.1.2.3 Bus2=segm_629071088.1.2.3 Switch=y r1=1e-4 r0=1e-4 x1=0 x0=0 c1=0 c0=0
New Line.ATSW_663079490 phases=3 Bus1=segm_5139943.1.2.3 Bus2=segm_663079491.1.2.3 Switch=y r1=1e-4 r0=1e-4 x1=0 x0=0 c1=0 c0=0
New Line.ATSW_423646160 phases=3 Bus1=segm_423646179.1.2.3 Bus2=segm_2664604008.1.2.3 Switch=y r1=1e-4 r0=1e-4 x1=0 x0=0 c1=0 c0=0
New Line.ATSW_629071024 phases=3 Bus1=segm_663079491.1.2.3 Bus2=segm_629071025.1.2.3 Switch=y r1=1e-4 r0=1e-4 x1=0 x0=0 c1=0 c0=0
New Line.ATSW_423646081 phases=3 Bus1=100_986559582.1.2.3 Bus2=segm_5139943.1.2.3 Switch=y r1=1e-4 r0=1e-4 x1=0 x0=0 c1=0 c0=0
New Line.ATSW_11851707 phases=1 Bus1=segm_11851457.1 Bus2=segm_11851728.1 Switch=y r1=1e-4 r0=1e-4 x1=0 x0=0 c1=0 c0=0
New Line.ATSW_11851776 phases=3 Bus1=segm_11851457.1.2.3 Bus2=segm_11851464.1.2.3 Switch=y r1=1e-4 r0=1e-4 x1=0 x0=0 c1=0 c0=0
New Line.ATSW_11383815 phases=3 Bus1=segm_2554613017.1.2.3 Bus2=segm_11383700.1.2.3 Switch=y r1=1e-4 r0=1e-4 x1=0 x0=0 c1=0 c0=0
New Line.ATSW_11383803 phases=3 Bus1=segm_2554613066.1.2.3 Bus2=segm_11384414.1.2.3 Switch=y r1=1e-4 r0=1e-4 x1=0 x0=0 c1=0 c0=0
New Line.ATSW_11383833 phases=3 Bus1=segm_2554612968.1.2.3 Bus2=segm_11383762.1.2.3 Switch=y r1=1e-4 r0=1e-4 x1=0 x0=0 c1=0 c0=0
New Line.ATSW_11383827 phases=3 Bus1=segm_11383731.1.2.3 Bus2=segm_2554612940.1.2.3 Switch=y r1=1e-4 r0=1e-4 x1=0 x0=0 c1=0 c0=0
New Line.ATSW_11383809 phases=3 Bus1=segm_2554613052.1.2.3 Bus2=segm_11383669.1.2.3 Switch=y r1=1e-4 r0=1e-4 x1=0 x0=0 c1=0 c0=0
New Line.ATSW_11383767 phases=3 Bus1=segm_11383433.1.2.3 Bus2=segm_2554613052.1.2.3 Switch=y r1=1e-4 r0=1e-4 x1=0 x0=0 c1=0 c0=0
New Line.ATSW_11383797 phases=3 Bus1=segm_11383433.1.2.3 Bus2=segm_2554612968.1.2.3 Switch=y r1=1e-4 r0=1e-4 x1=0 x0=0 c1=0 c0=0
New Line.ATSW_11383779 phases=3 Bus1=segm_11384414.1.2.3 Bus2=segm_11383432.1.2.3 Switch=y r1=1e-4 r0=1e-4 x1=0 x0=0 c1=0 c0=0
New Line.ATSW_11383821 phases=3 Bus1=segm_11383433.1.2.3 Bus2=segm_2554613017.1.2.3 Switch=y r1=1e-4 r0=1e-4 x1=0 x0=0 c1=0 c0=0
New Line.ATSW_11383587 phases=3 Bus1=100_580454364.1.2.3 Bus2=segm_11383432.1.2.3 Switch=y r1=1e-4 r0=1e-4 x1=0 x0=0 c1=0 c0=0
New Line.ATSW_11383637 phases=3 Bus1=100_578457672.1.2.3 Bus2=segm_11383432.1.2.3 Switch=y r1=1e-4 r0=1e-4 x1=0 x0=0 c1=0 c0=0
New Line.ATSW_11383878 phases=3 Bus1=segm_11383449.1.2.3 Bus2=segm_11384572.1.2.3 Switch=y r1=1e-4 r0=1e-4 x1=0 x0=0 c1=0 c0=0
New Line.ATSW_11383785 phases=3 Bus1=segm_11383433.1.2.3 Bus2=segm_11383449.1.2.3 Switch=y r1=1e-4 r0=1e-4 x1=0 x0=0 c1=0 c0=0
New Line.ATSW_11383884 phases=3 Bus1=segm_11383449.1.2.3 Bus2=segm_11384586.1.2.3 Switch=y r1=1e-4 r0=1e-4 x1=0 x0=0 c1=0 c0=0
New Line.ATSW_11383618 phases=3 Bus1=segm_11383432.1.2.3 Bus2=segm_11383449.1.2.3 Switch=y r1=1e-4 r0=1e-4 x1=0 x0=0 c1=0 c0=0
New Line.ATSW_11383773 phases=3 Bus1=segm_11383433.1.2.3 Bus2=segm_2554613066.1.2.3 Switch=y r1=1e-4 r0=1e-4 x1=0 x0=0 c1=0 c0=0
New Line.ATSW_11383606 phases=3 Bus1=segm_11383432.1.2.3 Bus2=100_978108834.1.2.3 Switch=y r1=1e-4 r0=1e-4 x1=0 x0=0 c1=0 c0=0
New Line.ATSW_11383791 phases=3 Bus1=segm_2554612940.1.2.3 Bus2=segm_11383433.1.2.3 Switch=y r1=1e-4 r0=1e-4 x1=0 x0=0 c1=0 c0=0
New Line.ATSW_10808146 phases=3 Bus1=segm_10808171.1.2.3 Bus2=segm_10808090.1.2.3 Switch=y r1=1e-4 r0=1e-4 x1=0 x0=0 c1=0 c0=0
New Line.ATSW_10808134 phases=3 Bus1=segm_10808059.1.2.3 Bus2=segm_10808159.1.2.3 Switch=y r1=1e-4 r0=1e-4 x1=0 x0=0 c1=0 c0=0
New Line.ATSW_10808239 phases=3 Bus1=segm_10808105.1.2.3 Bus2=segm_10808216.1.2.3 Switch=y r1=1e-4 r0=1e-4 x1=0 x0=0 c1=0 c0=0
New Line.ATSW_10808277 phases=3 Bus1=segm_10808105.1.2.3 Bus2=100_649059597.1.2.3 Switch=y r1=1e-4 r0=1e-4 x1=0 x0=0 c1=0 c0=0
New Line.ATSW_10808158 phases=3 Bus1=segm_10808159.1.2.3 Bus2=segm_10808105.1.2.3 Switch=y r1=1e-4 r0=1e-4 x1=0 x0=0 c1=0 c0=0
New Line.ATSW_10808227 phases=3 Bus1=segm_10808105.1.2.3 Bus2=segm_10808196.1.2.3 Switch=y r1=1e-4 r0=1e-4 x1=0 x0=0 c1=0 c0=0
New Line.ATSW_10808170 phases=3 Bus1=segm_10808105.1.2.3 Bus2=segm_10808171.1.2.3 Switch=y r1=1e-4 r0=1e-4 x1=0 x0=0 c1=0 c0=0
New Line.ATSW_10826201 phases=3 Bus1=segm_2662023426.1.2.3 Bus2=segm_10825253.1.2.3 Switch=y r1=1e-4 r0=1e-4 x1=0 x0=0 c1=0 c0=0
New Line.ATSW_10826337 phases=3 Bus1=segm_2662023523.1.2.3 Bus2=segm_2662023579.1.2.3 Switch=y r1=1e-4 r0=1e-4 x1=0 x0=0 c1=0 c0=0
New Line.ATSW_10826213 phases=3 Bus1=segm_10825197.1.2.3 Bus2=segm_2662023408.1.2.3 Switch=y r1=1e-4 r0=1e-4 x1=0 x0=0 c1=0 c0=0
New Line.ATSW_10826177 phases=3 Bus1=segm_10825278.1.2.3 Bus2=100_646182604.1.2.3 Switch=y r1=1e-4 r0=1e-4 x1=0 x0=0 c1=0 c0=0
New Line.ATSW_10826301 phases=3 Bus1=segm_2662023530.1.2.3 Bus2=100_1053181420.1.2.3 Switch=y r1=1e-4 r0=1e-4 x1=0 x0=0 c1=0 c0=0
New Line.ATSW_10826189 phases=3 Bus1=segm_10825278.1.2.3 Bus2=segm_2662023426.1.2.3 Switch=y r1=1e-4 r0=1e-4 x1=0 x0=0 c1=0 c0=0
New Line.ATSW_10826819 phases=1 Bus1=segm_10825278.3 Bus2=segm_10826820.3 Switch=y r1=1e-4 r0=1e-4 x1=0 x0=0 c1=0 c0=0
New Line.ATSW_10826868 phases=3 Bus1=segm_2662023474.1.2.3 Bus2=segm_2662023530.1.2.3 Switch=y r1=1e-4 r0=1e-4 x1=0 x0=0 c1=0 c0=0
New Line.ATSW_10826237 phases=3 Bus1=segm_10825278.1.2.3 Bus2=segm_10825285.1.2.3 Switch=y r1=1e-4 r0=1e-4 x1=0 x0=0 c1=0 c0=0
New Line.ATSW_10826325 phases=3 Bus1=segm_2662023530.1.2.3 Bus2=segm_2662023523.1.2.3 Switch=y r1=1e-4 r0=1e-4 x1=0 x0=0 c1=0 c0=0
New Line.ATSW_10826313 phases=3 Bus1=segm_2662023579.1.2.3 Bus2=100_1053181420.1.2.3 Switch=y r1=1e-4 r0=1e-4 x1=0 x0=0 c1=0 c0=0
New Line.ATSW_10826807 phases=3 Bus1=segm_10825285.1.2.3 Bus2=segm_2662023387.1.2.3 Switch=y r1=1e-4 r0=1e-4 x1=0 x0=0 c1=0 c0=0
New Line.ATSW_10826225 phases=3 Bus1=segm_2662023408.1.2.3 Bus2=segm_10825278.1.2.3 Switch=y r1=1e-4 r0=1e-4 x1=0 x0=0 c1=0 c0=0
New Line.ATSW_10826795 phases=3 Bus1=segm_10825285.1.2.3 Bus2=segm_10825292.1.2.3 Switch=y r1=1e-4 r0=1e-4 x1=0 x0=0 c1=0 c0=0
New Line.ATSW_5088467 phases=3 Bus1=segm_2576417440.1.2.3 Bus2=segm_5088510.1.2.3 Switch=y r1=1e-4 r0=1e-4 x1=0 x0=0 c1=0 c0=0
New Line.ATSW_5088658 phases=3 Bus1=segm_5088409.1.2.3 Bus2=segm_5088637.1.2.3 Switch=y r1=1e-4 r0=1e-4 x1=0 x0=0 c1=0 c0=0
New Line.ATSW_5088455 phases=3 Bus1=segm_5088510.1.2.3 Bus2=100_621728290.1.2.3 Switch=y r1=1e-4 r0=1e-4 x1=0 x0=0 c1=0 c0=0
New Line.ATSW_5088431 phases=3 Bus1=segm_5088409.1.2.3 Bus2=segm_2576417440.1.2.3 Switch=y r1=1e-4 r0=1e-4 x1=0 x0=0 c1=0 c0=0
New Line.ATSW_5088689 phases=1 Bus1=segm_5088637.1 Bus2=segm_5088690.1 Switch=y r1=1e-4 r0=1e-4 x1=0 x0=0 c1=0 c0=0
New Line.ATSW_10533486 phases=3 Bus1=segm_2690045349.1.2.3 Bus2=segm_2690045347.1.2.3 Switch=y r1=1e-4 r0=1e-4 x1=0 x0=0 c1=0 c0=0
New Line.ATSW_10533514 phases=3 Bus1=segm_2690045324.1.2.3 Bus2=segm_2690045331.1.2.3 Switch=y r1=1e-4 r0=1e-4 x1=0 x0=0 c1=0 c0=0
New Line.ATSW_10533558 phases=3 Bus1=segm_2690045289.1.2.3 Bus2=segm_10533664.1.2.3 Switch=y r1=1e-4 r0=1e-4 x1=0 x0=0 c1=0 c0=0
New Line.ATSW_10533299 phases=3 Bus1=segm_2690045390.1.2.3 Bus2=segm_2690045389.1.2.3 Switch=y r1=1e-4 r0=1e-4 x1=0 x0=0 c1=0 c0=0
New Line.ATSW_10533331 phases=3 Bus1=segm_2690045429.1.2.3 Bus2=segm_2690045436.1.2.3 Switch=y r1=1e-4 r0=1e-4 x1=0 x0=0 c1=0 c0=0
New Line.ATSW_10533286 phases=3 Bus1=segm_2690045389.1.2.3 Bus2=100_644379137.1.2.3 Switch=y r1=1e-4 r0=1e-4 x1=0 x0=0 c1=0 c0=0
New Line.ATSW_10533699 phases=3 Bus1=segm_10533220.1.2.3 Bus2=segm_10533459.1.2.3 Switch=y r1=1e-4 r0=1e-4 x1=0 x0=0 c1=0 c0=0
New Line.ATSW_10533530 phases=3 Bus1=segm_2690045331.1.2.3 Bus2=100_671032034.1.2.3 Switch=y r1=1e-4 r0=1e-4 x1=0 x0=0 c1=0 c0=0
New Line.ATSW_10533550 phases=3 Bus1=segm_10533213.1.2.3 Bus2=segm_2690045289.1.2.3 Switch=y r1=1e-4 r0=1e-4 x1=0 x0=0 c1=0 c0=0
New Line.ATSW_10533494 phases=3 Bus1=segm_10533359.1.2.3 Bus2=segm_2690045349.1.2.3 Switch=y r1=1e-4 r0=1e-4 x1=0 x0=0 c1=0 c0=0
New Line.ATSW_10533574 phases=3 Bus1=segm_10533213.1.2.3 Bus2=segm_10533459.1.2.3 Switch=y r1=1e-4 r0=1e-4 x1=0 x0=0 c1=0 c0=0
New Line.ATSW_10533522 phases=3 Bus1=segm_10533213.1.2.3 Bus2=segm_2690045324.1.2.3 Switch=y r1=1e-4 r0=1e-4 x1=0 x0=0 c1=0 c0=0
New Line.ATSW_10533311 phases=3 Bus1=segm_10533213.1.2.3 Bus2=segm_2690045390.1.2.3 Switch=y r1=1e-4 r0=1e-4 x1=0 x0=0 c1=0 c0=0
New Line.ATSW_10533339 phases=3 Bus1=segm_2690045436.1.2.3 Bus2=segm_10533220.1.2.3 Switch=y r1=1e-4 r0=1e-4 x1=0 x0=0 c1=0 c0=0
New Line.ATSW_10533323 phases=3 Bus1=segm_10533213.1.2.3 Bus2=segm_2690045429.1.2.3 Switch=y r1=1e-4 r0=1e-4 x1=0 x0=0 c1=0 c0=0
New Line.ATSW_10533478 phases=3 Bus1=segm_2690045347.1.2.3 Bus2=segm_10533213.1.2.3 Switch=y r1=1e-4 r0=1e-4 x1=0 x0=0 c1=0 c0=0
...
