L24/_AT/Barras_AT.dss
! ==========================================================
! BARRAS DE AT DAS SUBESTACOES — fechamento da malha de 88 kV
! 
! A BDGD nao modela o barramento interno da subestacao: os
! circuitos de AT que chegam e que saem nunca se encontram, e a
! malha fica em 844 ilhas. Aqui cada subestacao ganha a sua barra
! e os trechos que lhe pertencem sao ligados a ela.
! 
! Vinculo vindo de UNSEAT.SUB e UNTRAT.SUB (dado declarado) e,
! onde estes faltam, do nome do circuito em CTAT.NOME via
! dados/de_para_mnemonicos.csv.
! ==========================================================
! 1726516: 3 trecho(s) de AT chegando na barra
New Line.BAT_1726516_1 phases=3 Bus1=barra_at_1726516.1.2.3 Bus2=segm_195291136.1.2.3 Switch=y r1=0.0001 r0=0.0001 x1=0 x0=0 c1=0 c0=0
New Line.BAT_1726516_2 phases=3 Bus1=barra_at_1726516.1.2.3 Bus2=segm_390582932.1.2.3 Switch=y r1=0.0001 r0=0.0001 x1=0 x0=0 c1=0 c0=0
New Line.BAT_1726516_3 phases=3 Bus1=barra_at_1726516.1.2.3 Bus2=segm_390582406.1.2.3 Switch=y r1=0.0001 r0=0.0001 x1=0 x0=0 c1=0 c0=0
! 1726518: 41 trecho(s) de AT chegando na barra
New Line.BAT_1726518_1 phases=3 Bus1=barra_at_1726518.1.2.3 Bus2=segm_442174822.1.2.3 Switch=y r1=0.0001 r0=0.0001 x1=0 x0=0 c1=0 c0=0
New Line.BAT_1726518_2 phases=3 Bus1=barra_at_1726518.1.2.3 Bus2=segm_2739174221.1.2.3 Switch=y r1=0.0001 r0=0.0001 x1=0 x0=0 c1=0 c0=0
New Line.BAT_1726518_3 phases=3 Bus1=barra_at_1726518.1.2.3 Bus2=segm_442174980.1.2.3 Switch=y r1=0.0001 r0=0.0001 x1=0 x0=0 c1=0 c0=0
New Line.BAT_1726518_4 phases=3 Bus1=barra_at_1726518.1.2.3 Bus2=segm_442174945.1.2.3 Switch=y r1=0.0001 r0=0.0001 x1=0 x0=0 c1=0 c0=0
New Line.BAT_1726518_5 phases=3 Bus1=barra_at_1726518.1.2.3 Bus2=segm_2739174200.1.2.3 Switch=y r1=0.0001 r0=0.0001 x1=0 x0=0 c1=0 c0=0
New Line.BAT_1726518_6 phases=3 Bus1=barra_at_1726518.1.2.3 Bus2=segm_2739174024.1.2.3 Switch=y r1=0.0001 r0=0.0001 x1=0 x0=0 c1=0 c0=0
New Line.BAT_1726518_7 phases=3 Bus1=barra_at_1726518.1.2.3 Bus2=segm_884350626.1.2.3 Switch=y r1=0.0001 r0=0.0001 x1=0 x0=0 c1=0 c0=0
New Line.BAT_1726518_8 phases=3 Bus1=barra_at_1726518.1.2.3 Bus2=segm_884350526.1.2.3 Switch=y r1=0.0001 r0=0.0001 x1=0 x0=0 c1=0 c0=0
New Line.BAT_1726518_9 phases=3 Bus1=barra_at_1726518.1.2.3 Bus2=segm_884350244.1.2.3 Switch=y r1=0.0001 r0=0.0001 x1=0 x0=0 c1=0 c0=0
New Line.BAT_1726518_10 phases=3 Bus1=barra_at_1726518.1.2.3 Bus2=segm_884349568.1.2.3 Switch=y r1=0.0001 r0=0.0001 x1=0 x0=0 c1=0 c0=0
New Line.BAT_1726518_11 phases=3 Bus1=barra_at_1726518.1.2.3 Bus2=segm_884350576.1.2.3 Switch=y r1=0.0001 r0=0.0001 x1=0 x0=0 c1=0 c0=0
New Line.BAT_1726518_12 phases=3 Bus1=barra_at_1726518.1.2.3 Bus2=segm_1596260682.1.2.3 Switch=y r1=0.0001 r0=0.0001 x1=0 x0=0 c1=0 c0=0
New Line.BAT_1726518_13 phases=3 Bus1=barra_at_1726518.1.2.3 Bus2=segm_1596260390.1.2.3 Switch=y r1=0.0001 r0=0.0001 x1=0 x0=0 c1=0 c0=0
New Line.BAT_1726518_14 phases=3 Bus1=barra_at_1726518.1.2.3 Bus2=segm_5478345318.1.2.3 Switch=y r1=0.0001 r0=0.0001 x1=0 x0=0 c1=0 c0=0
New Line.BAT_1726518_15 phases=3 Bus1=barra_at_1726518.1.2.3 Bus2=segm_1596260560.1.2.3 Switch=y r1=0.0001 r0=0.0001 x1=0 x0=0 c1=0 c0=0
New Line.BAT_1726518_16 phases=3 Bus1=barra_at_1726518.1.2.3 Bus2=segm_884349412.1.2.3 Switch=y r1=0.0001 r0=0.0001 x1=0 x0=0 c1=0 c0=0
New Line.BAT_1726518_17 phases=3 Bus1=barra_at_1726518.1.2.3 Bus2=segm_1596260656.1.2.3 Switch=y r1=0.0001 r0=0.0001 x1=0 x0=0 c1=0 c0=0
New Line.BAT_1726518_18 phases=3 Bus1=barra_at_1726518.1.2.3 Bus2=segm_884350194.1.2.3 Switch=y r1=0.0001 r0=0.0001 x1=0 x0=0 c1=0 c0=0
New Line.BAT_1726518_19 phases=3 Bus1=barra_at_1726518.1.2.3 Bus2=segm_884349766.1.2.3 Switch=y r1=0.0001 r0=0.0001 x1=0 x0=0 c1=0 c0=0
New Line.BAT_1726518_20 phases=3 Bus1=barra_at_1726518.1.2.3 Bus2=segm_884350396.1.2.3 Switch=y r1=0.0001 r0=0.0001 x1=0 x0=0 c1=0 c0=0
New Line.BAT_1726518_21 phases=3 Bus1=barra_at_1726518.1.2.3 Bus2=segm_884349386.1.2.3 Switch=y r1=0.0001 r0=0.0001 x1=0 x0=0 c1=0 c0=0
New Line.BAT_1726518_22 phases=3 Bus1=barra_at_1726518.1.2.3 Bus2=segm_884349790.1.2.3 Switch=y r1=0.0001 r0=0.0001 x1=0 x0=0 c1=0 c0=0
New Line.BAT_1726518_23 phases=3 Bus1=barra_at_1726518.1.2.3 Bus2=segm_884349544.1.2.3 Switch=y r1=0.0001 r0=0.0001 x1=0 x0=0 c1=0 c0=0
New Line.BAT_1726518_24 phases=3 Bus1=barra_at_1726518.1.2.3 Bus2=segm_884350170.1.2.3 Switch=y r1=0.0001 r0=0.0001 x1=0 x0=0 c1=0 c0=0
New Line.BAT_1726518_25 phases=3 Bus1=barra_at_1726518.1.2.3 Bus2=segm_884350474.1.2.3 Switch=y r1=0.0001 r0=0.0001 x1=0 x0=0 c1=0 c0=0
New Line.BAT_1726518_26 phases=3 Bus1=barra_at_1726518.1.2.3 Bus2=segm_884349814.1.2.3 Switch=y r1=0.0001 r0=0.0001 x1=0 x0=0 c1=0 c0=0
New Line.BAT_1726518_27 phases=3 Bus1=barra_at_1726518.1.2.3 Bus2=segm_884350218.1.2.3 Switch=y r1=0.0001 r0=0.0001 x1=0 x0=0 c1=0 c0=0
New Line.BAT_1726518_28 phases=3 Bus1=barra_at_1726518.1.2.3 Bus2=segm_5478349140.1.2.3 Switch=y r1=0.0001 r0=0.0001 x1=0 x0=0 c1=0 c0=0
New Line.BAT_1726518_29 phases=3 Bus1=barra_at_1726518.1.2.3 Bus2=segm_1596260418.1.2.3 Switch=y r1=0.0001 r0=0.0001 x1=0 x0=0 c1=0 c0=0
New Line.BAT_1726518_30 phases=3 Bus1=barra_at_1726518.1.2.3 Bus2=segm_884349740.1.2.3 Switch=y r1=0.0001 r0=0.0001 x1=0 x0=0 c1=0 c0=0
New Line.BAT_1726518_31 phases=3 Bus1=barra_at_1726518.1.2.3 Bus2=segm_884350498.1.2.3 Switch=y r1=0.0001 r0=0.0001 x1=0 x0=0 c1=0 c0=0
New Line.BAT_1726518_32 phases=3 Bus1=barra_at_1726518.1.2.3 Bus2=segm_1596260476.1.2.3 Switch=y r1=0.0001 r0=0.0001 x1=0 x0=0 c1=0 c0=0
New Line.BAT_1726518_33 phases=3 Bus1=barra_at_1726518.1.2.3 Bus2=segm_884349690.1.2.3 Switch=y r1=0.0001 r0=0.0001 x1=0 x0=0 c1=0 c0=0
New Line.BAT_1726518_34 phases=3 Bus1=barra_at_1726518.1.2.3 Bus2=segm_884350446.1.2.3 Switch=y r1=0.0001 r0=0.0001 x1=0 x0=0 c1=0 c0=0
New Line.BAT_1726518_35 phases=3 Bus1=barra_at_1726518.1.2.3 Bus2=segm_884350650.1.2.3 Switch=y r1=0.0001 r0=0.0001 x1=0 x0=0 c1=0 c0=0
New Line.BAT_1726518_36 phases=3 Bus1=barra_at_1726518.1.2.3 Bus2=segm_5478348732.1.2.3 Switch=y r1=0.0001 r0=0.0001 x1=0 x0=0 c1=0 c0=0
New Line.BAT_1726518_37 phases=3 Bus1=barra_at_1726518.1.2.3 Bus2=segm_5478348794.1.2.3 Switch=y r1=0.0001 r0=0.0001 x1=0 x0=0 c1=0 c0=0
New Line.BAT_1726518_38 phases=3 Bus1=barra_at_1726518.1.2.3 Bus2=segm_884349936.1.2.3 Switch=y r1=0.0001 r0=0.0001 x1=0 x0=0 c1=0 c0=0
New Line.BAT_1726518_39 phases=3 Bus1=barra_at_1726518.1.2.3 Bus2=segm_884349316.1.2.3 Switch=y r1=0.0001 r0=0.0001 x1=0 x0=0 c1=0 c0=0
New Line.BAT_1726518_40 phases=3 Bus1=barra_at_1726518.1.2.3 Bus2=segm_884349620.1.2.3 Switch=y r1=0.0001 r0=0.0001 x1=0 x0=0 c1=0 c0=0
New Line.BAT_1726518_41 phases=3 Bus1=barra_at_1726518.1.2.3 Bus2=segm_884349866.1.2.3 Switch=y r1=0.0001 r0=0.0001 x1=0 x0=0 c1=0 c0=0
! 1726519: 4 trecho(s) de AT chegando na barra
New Line.BAT_1726519_1 phases=3 Bus1=barra_at_1726519.1.2.3 Bus2=segm_5195945.1.2.3 Switch=y r1=0.0001 r0=0.0001 x1=0 x0=0 c1=0 c0=0
New Line.BAT_1726519_2 phases=3 Bus1=barra_at_1726519.1.2.3 Bus2=segm_393648288.1.2.3 Switch=y r1=0.0001 r0=0.0001 x1=0 x0=0 c1=0 c0=0
New Line.BAT_1726519_3 phases=3 Bus1=barra_at_1726519.1.2.3 Bus2=segm_10391546.1.2.3 Switch=y r1=0.0001 r0=0.0001 x1=0 x0=0 c1=0 c0=0
New Line.BAT_1726519_4 phases=3 Bus1=barra_at_1726519.1.2.3 Bus2=segm_10391608.1.2.3 Switch=y r1=0.0001 r0=0.0001 x1=0 x0=0 c1=0 c0=0
! 1726520: 20 trecho(s) de AT chegando na barra
New Line.BAT_1726520_1 phases=3 Bus1=barra_at_1726520.1.2.3 Bus2=100_615703794.1.2.3 Switch=y r1=0.0001 r0=0.0001 x1=0 x0=0 c1=0 c0=0
New Line.BAT_1726520_2 phases=3 Bus1=barra_at_1726520.1.2.3 Bus2=100_2672410382.1.2.3 Switch=y r1=0.0001 r0=0.0001 x1=0 x0=0 c1=0 c0=0
New Line.BAT_1726520_3 phases=3 Bus1=barra_at_1726520.1.2.3 Bus2=100_1978928551.1.2.3 Switch=y r1=0.0001 r0=0.0001 x1=0 x0=0 c1=0 c0=0
New Line.BAT_1726520_4 phases=3 Bus1=barra_at_1726520.1.2.3 Bus2=segm_2543302966.1.2.3 Switch=y r1=0.0001 r0=0.0001 x1=0 x0=0 c1=0 c0=0
New Line.BAT_1726520_5 phases=3 Bus1=barra_at_1726520.1.2.3 Bus2=100_617159470.1.2.3 Switch=y r1=0.0001 r0=0.0001 x1=0 x0=0 c1=0 c0=0
New Line.BAT_1726520_6 phases=3 Bus1=barra_at_1726520.1.2.3 Bus2=segm_2543302861.1.2.3 Switch=y r1=0.0001 r0=0.0001 x1=0 x0=0 c1=0 c0=0
New Line.BAT_1726520_7 phases=3 Bus1=barra_at_1726520.1.2.3 Bus2=segm_387314260.1.2.3 Switch=y r1=0.0001 r0=0.0001 x1=0 x0=0 c1=0 c0=0
New Line.BAT_1726520_8 phases=3 Bus1=barra_at_1726520.1.2.3 Bus2=segm_387314228.1.2.3 Switch=y r1=0.0001 r0=0.0001 x1=0 x0=0 c1=0 c0=0
New Line.BAT_1726520_9 phases=3 Bus1=barra_at_1726520.1.2.3 Bus2=segm_387311752.1.2.3 Switch=y r1=0.0001 r0=0.0001 x1=0 x0=0 c1=0 c0=0
New Line.BAT_1726520_10 phases=3 Bus1=barra_at_1726520.1.2.3 Bus2=segm_387311832.1.2.3 Switch=y r1=0.0001 r0=0.0001 x1=0 x0=0 c1=0 c0=0
New Line.BAT_1726520_11 phases=3 Bus1=barra_at_1726520.1.2.3 Bus2=segm_387311904.1.2.3 Switch=y r1=0.0001 r0=0.0001 x1=0 x0=0 c1=0 c0=0
New Line.BAT_1726520_12 phases=3 Bus1=barra_at_1726520.1.2.3 Bus2=segm_387311776.1.2.3 Switch=y r1=0.0001 r0=0.0001 x1=0 x0=0 c1=0 c0=0
New Line.BAT_1726520_13 phases=3 Bus1=barra_at_1726520.1.2.3 Bus2=segm_387311856.1.2.3 Switch=y r1=0.0001 r0=0.0001 x1=0 x0=0 c1=0 c0=0
New Line.BAT_1726520_14 phases=3 Bus1=barra_at_1726520.1.2.3 Bus2=segm_3941316834.1.2.3 Switch=y r1=0.0001 r0=0.0001 x1=0 x0=0 c1=0 c0=0
New Line.BAT_1726520_15 phases=3 Bus1=barra_at_1726520.1.2.3 Bus2=segm_3617240316.1.2.3 Switch=y r1=0.0001 r0=0.0001 x1=0 x0=0 c1=0 c0=0
New Line.BAT_1726520_16 phases=3 Bus1=barra_at_1726520.1.2.3 Bus2=segm_427691208.1.2.3 Switch=y r1=0.0001 r0=0.0001 x1=0 x0=0 c1=0 c0=0
New Line.BAT_1726520_17 phases=3 Bus1=barra_at_1726520.1.2.3 Bus2=segm_427691504.1.2.3 Switch=y r1=0.0001 r0=0.0001 x1=0 x0=0 c1=0 c0=0
New Line.BAT_1726520_18 phases=3 Bus1=barra_at_1726520.1.2.3 Bus2=segm_427690990.1.2.3 Switch=y r1=0.0001 r0=0.0001 x1=0 x0=0 c1=0 c0=0
New Line.BAT_1726520_19 phases=3 Bus1=barra_at_1726520.1.2.3 Bus2=segm_427691284.1.2.3 Switch=y r1=0.0001 r0=0.0001 x1=0 x0=0 c1=0 c0=0
New Line.BAT_1726520_20 phases=3 Bus1=barra_at_1726520.1.2.3 Bus2=segm_408565518.1.2.3 Switch=y r1=0.0001 r0=0.0001 x1=0 x0=0 c1=0 c0=0
! 1726521: 4 trecho(s) de AT chegando na barra
New Line.BAT_1726521_1 phases=3 Bus1=barra_at_1726521.1.2.3 Bus2=100_649059597.1.2.3 Switch=y r1=0.0001 r0=0.0001 x1=0 x0=0 c1=0 c0=0
New Line.BAT_1726521_2 phases=3 Bus1=barra_at_1726521.1.2.3 Bus2=segm_10808171.1.2.3 Switch=y r1=0.0001 r0=0.0001 x1=0 x0=0 c1=0 c0=0
New Line.BAT_1726521_3 phases=3 Bus1=barra_at_1726521.1.2.3 Bus2=segm_21616086.1.2.3 Switch=y r1=0.0001 r0=0.0001 x1=0 x0=0 c1=0 c0=0
New Line.BAT_1726521_4 phases=3 Bus1=barra_at_1726521.1.2.3 Bus2=segm_21616148.1.2.3 Switch=y r1=0.0001 r0=0.0001 x1=0 x0=0 c1=0 c0=0
! 1726522: 3 trecho(s) de AT chegando na barra
New Line.BAT_1726522_1 phases=3 Bus1=barra_at_1726522.1.2.3 Bus2=segm_11851457.1.2.3 Switch=y r1=0.0001 r0=0.0001 x1=0 x0=0 c1=0 c0=0
New Line.BAT_1726522_2 phases=3 Bus1=barra_at_1726522.1.2.3 Bus2=segm_23703338.1.2.3 Switch=y r1=0.0001 r0=0.0001 x1=0 x0=0 c1=0 c0=0
New Line.BAT_1726522_3 phases=3 Bus1=barra_at_1726522.1.2.3 Bus2=segm_23703494.1.2.3 Switch=y r1=0.0001 r0=0.0001 x1=0 x0=0 c1=0 c0=0
! 1726523: 5 trecho(s) de AT chegando na barra
New Line.BAT_1726523_1 phases=3 Bus1=barra_at_1726523.1.2.3 Bus2=segm_2744218629.1.2.3 Switch=y r1=0.0001 r0=0.0001 x1=0 x0=0 c1=0 c0=0
New Line.BAT_1726523_2 phases=3 Bus1=barra_at_1726523.1.2.3 Bus2=segm_193899923.1.2.3 Switch=y r1=0.0001 r0=0.0001 x1=0 x0=0 c1=0 c0=0
New Line.BAT_1726523_3 phases=3 Bus1=barra_at_1726523.1.2.3 Bus2=segm_387799810.1.2.3 Switch=y r1=0.0001 r0=0.0001 x1=0 x0=0 c1=0 c0=0
New Line.BAT_1726523_4 phases=3 Bus1=barra_at_1726523.1.2.3 Bus2=segm_387800198.1.2.3 Switch=y r1=0.0001 r0=0.0001 x1=0 x0=0 c1=0 c0=0
New Line.BAT_1726523_5 phases=3 Bus1=barra_at_1726523.1.2.3 Bus2=segm_387800534.1.2.3 Switch=y r1=0.0001 r0=0.0001 x1=0 x0=0 c1=0 c0=0
! 1726524: 6 trecho(s) de AT chegando na barra
New Line.BAT_1726524_1 phases=3 Bus1=barra_at_1726524.1.2.3 Bus2=segm_11414075.1.2.3 Switch=y r1=0.0001 r0=0.0001 x1=0 x0=0 c1=0 c0=0
New Line.BAT_1726524_2 phases=3 Bus1=barra_at_1726524.1.2.3 Bus2=segm_2577981600.1.2.3 Switch=y r1=0.0001 r0=0.0001 x1=0 x0=0 c1=0 c0=0
New Line.BAT_1726524_3 phases=3 Bus1=barra_at_1726524.1.2.3 Bus2=segm_3372053312.1.2.3 Switch=y r1=0.0001 r0=0.0001 x1=0 x0=0 c1=0 c0=0
New Line.BAT_1726524_4 phases=3 Bus1=barra_at_1726524.1.2.3 Bus2=segm_3372053374.1.2.3 Switch=y r1=0.0001 r0=0.0001 x1=0 x0=0 c1=0 c0=0
New Line.BAT_1726524_5 phases=3 Bus1=barra_at_1726524.1.2.3 Bus2=segm_22827094.1.2.3 Switch=y r1=0.0001 r0=0.0001 x1=0 x0=0 c1=0 c0=0
New Line.BAT_1726524_6 phases=3 Bus1=barra_at_1726524.1.2.3 Bus2=segm_22826960.1.2.3 Switch=y r1=0.0001 r0=0.0001 x1=0 x0=0 c1=0 c0=0
! 1726525: 6 trecho(s) de AT chegando na barra
New Line.BAT_1726525_1 phases=3 Bus1=barra_at_1726525.1.2.3 Bus2=100_613093040.1.2.3 Switch=y r1=0.0001 r0=0.0001 x1=0 x0=0 c1=0 c0=0
New Line.BAT_1726525_2 phases=3 Bus1=barra_at_1726525.1.2.3 Bus2=segm_2648852952.1.2.3 Switch=y r1=0.0001 r0=0.0001 x1=0 x0=0 c1=0 c0=0
New Line.BAT_1726525_3 phases=3 Bus1=barra_at_1726525.1.2.3 Bus2=segm_192976773.1.2.3 Switch=y r1=0.0001 r0=0.0001 x1=0 x0=0 c1=0 c0=0
New Line.BAT_1726525_4 phases=3 Bus1=barra_at_1726525.1.2.3 Bus2=segm_385955820.1.2.3 Switch=y r1=0.0001 r0=0.0001 x1=0 x0=0 c1=0 c0=0
New Line.BAT_1726525_5 phases=3 Bus1=barra_at_1726525.1.2.3 Bus2=segm_385956046.1.2.3 Switch=y r1=0.0001 r0=0.0001 x1=0 x0=0 c1=0 c0=0
New Line.BAT_1726525_6 phases=3 Bus1=barra_at_1726525.1.2.3 Bus2=segm_385956264.1.2.3 Switch=y r1=0.0001 r0=0.0001 x1=0 x0=0 c1=0 c0=0
! 1726526: 6 trecho(s) de AT chegando na barra
New Line.BAT_1726526_1 phases=3 Bus1=barra_at_1726526.1.2.3 Bus2=100_646182604.1.2.3 Switch=y r1=0.0001 r0=0.0001 x1=0 x0=0 c1=0 c0=0
New Line.BAT_1726526_2 phases=3 Bus1=barra_at_1726526.1.2.3 Bus2=segm_2662023426.1.2.3 Switch=y r1=0.0001 r0=0.0001 x1=0 x0=0 c1=0 c0=0
New Line.BAT_1726526_3 phases=3 Bus1=barra_at_1726526.1.2.3 Bus2=segm_2662023523.1.2.3 Switch=y r1=0.0001 r0=0.0001 x1=0 x0=0 c1=0 c0=0
New Line.BAT_1726526_4 phases=3 Bus1=barra_at_1726526.1.2.3 Bus2=segm_21650494.1.2.3 Switch=y r1=0.0001 r0=0.0001 x1=0 x0=0 c1=0 c0=0
New Line.BAT_1726526_5 phases=3 Bus1=barra_at_1726526.1.2.3 Bus2=segm_21650362.1.2.3 Switch=y r1=0.0001 r0=0.0001 x1=0 x0=0 c1=0 c0=0
New Line.BAT_1726526_6 phases=3 Bus1=barra_at_1726526.1.2.3 Bus2=segm_21653654.1.2.3 Switch=y r1=0.0001 r0=0.0001 x1=0 x0=0 c1=0 c0=0
! 1726527: 2 trecho(s) de AT chegando na barra
New Line.BAT_1726527_1 phases=3 Bus1=barra_at_1726527.1.2.3 Bus2=segm_2720471637.1.2.3 Switch=y r1=0.0001 r0=0.0001 x1=0 x0=0 c1=0 c0=0
New Line.BAT_1726527_2 phases=3 Bus1=barra_at_1726527.1.2.3 Bus2=segm_11770351.1.2.3 Switch=y r1=0.0001 r0=0.0001 x1=0 x0=0 c1=0 c0=0
! 1726528: 6 trecho(s) de AT chegando na barra
New Line.BAT_1726528_1 phases=3 Bus1=barra_at_1726528.1.2.3 Bus2=100_579561203.1.2.3 Switch=y r1=0.0001 r0=0.0001 x1=0 x0=0 c1=0 c0=0
New Line.BAT_1726528_2 phases=3 Bus1=barra_at_1726528.1.2.3 Bus2=100_986559582.1.2.3 Switch=y r1=0.0001 r0=0.0001 x1=0 x0=0 c1=0 c0=0
New Line.BAT_1726528_3 phases=3 Bus1=barra_at_1726528.1.2.3 Bus2=segm_2664603952.1.2.3 Switch=y r1=0.0001 r0=0.0001 x1=0 x0=0 c1=0 c0=0
New Line.BAT_1726528_4 phases=3 Bus1=barra_at_1726528.1.2.3 Bus2=segm_3075003456.1.2.3 Switch=y r1=0.0001 r0=0.0001 x1=0 x0=0 c1=0 c0=0
New Line.BAT_1726528_5 phases=3 Bus1=barra_at_1726528.1.2.3 Bus2=segm_3075003526.1.2.3 Switch=y r1=0.0001 r0=0.0001 x1=0 x0=0 c1=0 c0=0
New Line.BAT_1726528_6 phases=3 Bus1=barra_at_1726528.1.2.3 Bus2=segm_847292196.1.2.3 Switch=y r1=0.0001 r0=0.0001 x1=0 x0=0 c1=0 c0=0
! 1726529: 2 trecho(s) de AT chegando na barra
New Line.BAT_1726529_1 phases=3 Bus1=barra_at_1726529.1.2.3 Bus2=segm_195239836.1.2.3 Switch=y r1=0.0001 r0=0.0001 x1=0 x0=0 c1=0 c0=0
New Line.BAT_1726529_2 phases=3 Bus1=barra_at_1726529.1.2.3 Bus2=segm_390479648.1.2.3 Switch=y r1=0.0001 r0=0.0001 x1=0 x0=0 c1=0 c0=0
! 1726530: 6 trecho(s) de AT chegando na barra
New Line.BAT_1726530_1 phases=3 Bus1=barra_at_1726530.1.2.3 Bus2=100_1245066771.1.2.3 Switch=y r1=0.0001 r0=0.0001 x1=0 x0=0 c1=0 c0=0
New Line.BAT_1726530_2 phases=3 Bus1=barra_at_1726530.1.2.3 Bus2=100_622166289.1.2.3 Switch=y r1=0.0001 r0=0.0001 x1=0 x0=0 c1=0 c0=0
New Line.BAT_1726530_3 phases=3 Bus1=barra_at_1726530.1.2.3 Bus2=segm_1041780490.1.2.3 Switch=y r1=0.0001 r0=0.0001 x1=0 x0=0 c1=0 c0=0
New Line.BAT_1726530_4 phases=3 Bus1=barra_at_1726530.1.2.3 Bus2=segm_2216590072.1.2.3 Switch=y r1=0.0001 r0=0.0001 x1=0 x0=0 c1=0 c0=0
New Line.BAT_1726530_5 phases=3 Bus1=barra_at_1726530.1.2.3 Bus2=segm_2216590002.1.2.3 Switch=y r1=0.0001 r0=0.0001 x1=0 x0=0 c1=0 c0=0
New Line.BAT_1726530_6 phases=3 Bus1=barra_at_1726530.1.2.3 Bus2=segm_2216590142.1.2.3 Switch=y r1=0.0001 r0=0.0001 x1=0 x0=0 c1=0 c0=0
! 1726531: 2 trecho(s) de AT chegando na barra
New Line.BAT_1726531_1 phases=3 Bus1=barra_at_1726531.1.2.3 Bus2=segm_2634380471.1.2.3 Switch=y r1=0.0001 r0=0.0001 x1=0 x0=0 c1=0 c0=0
New Line.BAT_1726531_2 phases=3 Bus1=barra_at_1726531.1.2.3 Bus2=segm_24252804.1.2.3 Switch=y r1=0.0001 r0=0.0001 x1=0 x0=0 c1=0 c0=0
! 1726532: 4 trecho(s) de AT chegando na barra
New Line.BAT_1726532_1 phases=3 Bus1=barra_at_1726532.1.2.3 Bus2=segm_2576417440.1.2.3 Switch=y r1=0.0001 r0=0.0001 x1=0 x0=0 c1=0 c0=0
New Line.BAT_1726532_2 phases=3 Bus1=barra_at_1726532.1.2.3 Bus2=segm_10177136.1.2.3 Switch=y r1=0.0001 r0=0.0001 x1=0 x0=0 c1=0 c0=0
New Line.BAT_1726532_3 phases=3 Bus1=barra_at_1726532.1.2.3 Bus2=segm_428206268.1.2.3 Switch=y r1=0.0001 r0=0.0001 x1=0 x0=0 c1=0 c0=0
New Line.BAT_1726532_4 phases=3 Bus1=barra_at_1726532.1.2.3 Bus2=segm_10178600.1.2.3 Switch=y r1=0.0001 r0=0.0001 x1=0 x0=0 c1=0 c0=0
! 1726533: 8 trecho(s) de AT chegando na barra
New Line.BAT_1726533_1 phases=3 Bus1=barra_at_1726533.1.2.3 Bus2=100_612977113.1.2.3 Switch=y r1=0.0001 r0=0.0001 x1=0 x0=0 c1=0 c0=0
New Line.BAT_1726533_2 phases=3 Bus1=barra_at_1726533.1.2.3 Bus2=segm_2544650843.1.2.3 Switch=y r1=0.0001 r0=0.0001 x1=0 x0=0 c1=0 c0=0
New Line.BAT_1726533_3 phases=3 Bus1=barra_at_1726533.1.2.3 Bus2=segm_189563875.1.2.3 Switch=y r1=0.0001 r0=0.0001 x1=0 x0=0 c1=0 c0=0
New Line.BAT_1726533_4 phases=3 Bus1=barra_at_1726533.1.2.3 Bus2=segm_189563907.1.2.3 Switch=y r1=0.0001 r0=0.0001 x1=0 x0=0 c1=0 c0=0
New Line.BAT_1726533_5 phases=3 Bus1=barra_at_1726533.1.2.3 Bus2=segm_379130038.1.2.3 Switch=y r1=0.0001 r0=0.0001 x1=0 x0=0 c1=0 c0=0
New Line.BAT_1726533_6 phases=3 Bus1=barra_at_1726533.1.2.3 Bus2=segm_379129944.1.2.3 Switch=y r1=0.0001 r0=0.0001 x1=0 x0=0 c1=0 c0=0
New Line.BAT_1726533_7 phases=3 Bus1=barra_at_1726533.1.2.3 Bus2=segm_379131386.1.2.3 Switch=y r1=0.0001 r0=0.0001 x1=0 x0=0 c1=0 c0=0
New Line.BAT_1726533_8 phases=3 Bus1=barra_at_1726533.1.2.3 Bus2=segm_379131312.1.2.3 Switch=y r1=0.0001 r0=0.0001 x1=0 x0=0 c1=0 c0=0
! 1726534: 18 trecho(s) de AT chegando na barra
New Line.BAT_1726534_1 phases=3 Bus1=barra_at_1726534.1.2.3 Bus2=100_647071464.1.2.3 Switch=y r1=0.0001 r0=0.0001 x1=0 x0=0 c1=0 c0=0
New Line.BAT_1726534_2 phases=3 Bus1=barra_at_1726534.1.2.3 Bus2=segm_2710294611.1.2.3 Switch=y r1=0.0001 r0=0.0001 x1=0 x0=0 c1=0 c0=0
New Line.BAT_1726534_3 phases=3 Bus1=barra_at_1726534.1.2.3 Bus2=100_644211675.1.2.3 Switch=y r1=0.0001 r0=0.0001 x1=0 x0=0 c1=0 c0=0
New Line.BAT_1726534_4 phases=3 Bus1=barra_at_1726534.1.2.3 Bus2=100_646921173.1.2.3 Switch=y r1=0.0001 r0=0.0001 x1=0 x0=0 c1=0 c0=0
New Line.BAT_1726534_5 phases=3 Bus1=barra_at_1726534.1.2.3 Bus2=100_647260401.1.2.3 Switch=y r1=0.0001 r0=0.0001 x1=0 x0=0 c1=0 c0=0
New Line.BAT_1726534_6 phases=3 Bus1=barra_at_1726534.1.2.3 Bus2=100_647007053.1.2.3 Switch=y r1=0.0001 r0=0.0001 x1=0 x0=0 c1=0 c0=0
New Line.BAT_1726534_7 phases=3 Bus1=barra_at_1726534.1.2.3 Bus2=100_647174530.1.2.3 Switch=y r1=0.0001 r0=0.0001 x1=0 x0=0 c1=0 c0=0
New Line.BAT_1726534_8 phases=3 Bus1=barra_at_1726534.1.2.3 Bus2=segm_10370190.1.2.3 Switch=y r1=0.0001 r0=0.0001 x1=0 x0=0 c1=0 c0=0
New Line.BAT_1726534_9 phases=3 Bus1=barra_at_1726534.1.2.3 Bus2=segm_2710294494.1.2.3 Switch=y r1=0.0001 r0=0.0001 x1=0 x0=0 c1=0 c0=0
New Line.BAT_1726534_10 phases=3 Bus1=barra_at_1726534.1.2.3 Bus2=segm_20741036.1.2.3 Switch=y r1=0.0001 r0=0.0001 x1=0 x0=0 c1=0 c0=0
New Line.BAT_1726534_11 phases=3 Bus1=barra_at_1726534.1.2.3 Bus2=segm_20743080.1.2.3 Switch=y r1=0.0001 r0=0.0001 x1=0 x0=0 c1=0 c0=0
New Line.BAT_1726534_12 phases=3 Bus1=barra_at_1726534.1.2.3 Bus2=segm_20740286.1.2.3 Switch=y r1=0.0001 r0=0.0001 x1=0 x0=0 c1=0 c0=0
New Line.BAT_1726534_13 phases=3 Bus1=barra_at_1726534.1.2.3 Bus2=segm_20740618.1.2.3 Switch=y r1=0.0001 r0=0.0001 x1=0 x0=0 c1=0 c0=0
New Line.BAT_1726534_14 phases=3 Bus1=barra_at_1726534.1.2.3 Bus2=segm_20740542.1.2.3 Switch=y r1=0.0001 r0=0.0001 x1=0 x0=0 c1=0 c0=0
New Line.BAT_1726534_15 phases=3 Bus1=barra_at_1726534.1.2.3 Bus2=segm_20740348.1.2.3 Switch=y r1=0.0001 r0=0.0001 x1=0 x0=0 c1=0 c0=0
New Line.BAT_1726534_16 phases=3 Bus1=barra_at_1726534.1.2.3 Bus2=segm_20740224.1.2.3 Switch=y r1=0.0001 r0=0.0001 x1=0 x0=0 c1=0 c0=0
New Line.BAT_1726534_17 phases=3 Bus1=barra_at_1726534.1.2.3 Bus2=segm_20740890.1.2.3 Switch=y r1=0.0001 r0=0.0001 x1=0 x0=0 c1=0 c0=0
New Line.BAT_1726534_18 phases=3 Bus1=barra_at_1726534.1.2.3 Bus2=segm_20742956.1.2.3 Switch=y r1=0.0001 r0=0.0001 x1=0 x0=0 c1=0 c0=0
! 1726535: 2 trecho(s) de AT chegando na barra
New Line.BAT_1726535_1 phases=3 Bus1=barra_at_1726535.1.2.3 Bus2=node_2741406744.1.2.3 Switch=y r1=0.0001 r0=0.0001 x1=0 x0=0 c1=0 c0=0
New Line.BAT_1726535_2 phases=3 Bus1=barra_at_1726535.1.2.3 Bus2=segm_2571269473.1.2.3 Switch=y r1=0.0001 r0=0.0001 x1=0 x0=0 c1=0 c0=0
! 1726536: 1 trecho(s) de AT chegando na barra
New Line.BAT_1726536_1 phases=3 Bus1=barra_at_1726536.1.2.3 Bus2=segm_2556880267.1.2.3 Switch=y r1=0.0001 r0=0.0001 x1=0 x0=0 c1=0 c0=0
! 1726537: 8 trecho(s) de AT chegando na barra
New Line.BAT_1726537_1 phases=3 Bus1=barra_at_1726537.1.2.3 Bus2=100_580454364.1.2.3 Switch=y r1=0.0001 r0=0.0001 x1=0 x0=0 c1=0 c0=0
New Line.BAT_1726537_2 phases=3 Bus1=barra_at_1726537.1.2.3 Bus2=100_978108834.1.2.3 Switch=y r1=0.0001 r0=0.0001 x1=0 x0=0 c1=0 c0=0
New Line.BAT_1726537_3 phases=3 Bus1=barra_at_1726537.1.2.3 Bus2=100_578457672.1.2.3 Switch=y r1=0.0001 r0=0.0001 x1=0 x0=0 c1=0 c0=0
New Line.BAT_1726537_4 phases=3 Bus1=barra_at_1726537.1.2.3 Bus2=segm_2554613017.1.2.3 Switch=y r1=0.0001 r0=0.0001 x1=0 x0=0 c1=0 c0=0
New Line.BAT_1726537_5 phases=3 Bus1=barra_at_1726537.1.2.3 Bus2=segm_22767472.1.2.3 Switch=y r1=0.0001 r0=0.0001 x1=0 x0=0 c1=0 c0=0
New Line.BAT_1726537_6 phases=3 Bus1=barra_at_1726537.1.2.3 Bus2=segm_22767348.1.2.3 Switch=y r1=0.0001 r0=0.0001 x1=0 x0=0 c1=0 c0=0
New Line.BAT_1726537_7 phases=3 Bus1=barra_at_1726537.1.2.3 Bus2=segm_22767410.1.2.3 Switch=y r1=0.0001 r0=0.0001 x1=0 x0=0 c1=0 c0=0
New Line.BAT_1726537_8 phases=3 Bus1=barra_at_1726537.1.2.3 Bus2=segm_22767286.1.2.3 Switch=y r1=0.0001 r0=0.0001 x1=0 x0=0 c1=0 c0=0
! 1726538: 3 trecho(s) de AT chegando na barra
New Line.BAT_1726538_1 phases=3 Bus1=barra_at_1726538.1.2.3 Bus2=segm_11731673.1.2.3 Switch=y r1=0.0001 r0=0.0001 x1=0 x0=0 c1=0 c0=0
New Line.BAT_1726538_2 phases=3 Bus1=barra_at_1726538.1.2.3 Bus2=segm_23463380.1.2.3 Switch=y r1=0.0001 r0=0.0001 x1=0 x0=0 c1=0 c0=0
New Line.BAT_1726538_3 phases=3 Bus1=barra_at_1726538.1.2.3 Bus2=segm_23463252.1.2.3 Switch=y r1=0.0001 r0=0.0001 x1=0 x0=0 c1=0 c0=0
! 1726539: 11 trecho(s) de AT chegando na barra
New Line.BAT_1726539_1 phases=3 Bus1=barra_at_1726539.1.2.3 Bus2=100_637083631.1.2.3 Switch=y r1=0.0001 r0=0.0001 x1=0 x0=0 c1=0 c0=0
New Line.BAT_1726539_2 phases=3 Bus1=barra_at_1726539.1.2.3 Bus2=100_637388492.1.2.3 Switch=y r1=0.0001 r0=0.0001 x1=0 x0=0 c1=0 c0=0
New Line.BAT_1726539_3 phases=3 Bus1=barra_at_1726539.1.2.3 Bus2=100_1891889380.1.2.3 Switch=y r1=0.0001 r0=0.0001 x1=0 x0=0 c1=0 c0=0
New Line.BAT_1726539_4 phases=3 Bus1=barra_at_1726539.1.2.3 Bus2=segm_1369064687.1.2.3 Switch=y r1=0.0001 r0=0.0001 x1=0 x0=0 c1=0 c0=0
New Line.BAT_1726539_5 phases=3 Bus1=barra_at_1726539.1.2.3 Bus2=100_637598898.1.2.3 Switch=y r1=0.0001 r0=0.0001 x1=0 x0=0 c1=0 c0=0
New Line.BAT_1726539_6 phases=3 Bus1=barra_at_1726539.1.2.3 Bus2=segm_3030009606.1.2.3 Switch=y r1=0.0001 r0=0.0001 x1=0 x0=0 c1=0 c0=0
New Line.BAT_1726539_7 phases=3 Bus1=barra_at_1726539.1.2.3 Bus2=segm_20328130.1.2.3 Switch=y r1=0.0001 r0=0.0001 x1=0 x0=0 c1=0 c0=0
New Line.BAT_1726539_8 phases=3 Bus1=barra_at_1726539.1.2.3 Bus2=segm_20328316.1.2.3 Switch=y r1=0.0001 r0=0.0001 x1=0 x0=0 c1=0 c0=0
New Line.BAT_1726539_9 phases=3 Bus1=barra_at_1726539.1.2.3 Bus2=segm_20328192.1.2.3 Switch=y r1=0.0001 r0=0.0001 x1=0 x0=0 c1=0 c0=0
New Line.BAT_1726539_10 phases=3 Bus1=barra_at_1726539.1.2.3 Bus2=segm_20328254.1.2.3 Switch=y r1=0.0001 r0=0.0001 x1=0 x0=0 c1=0 c0=0
New Line.BAT_1726539_11 phases=3 Bus1=barra_at_1726539.1.2.3 Bus2=segm_20328040.1.2.3 Switch=y r1=0.0001 r0=0.0001 x1=0 x0=0 c1=0 c0=0
! 1726540: 4 trecho(s) de AT chegando na barra
New Line.BAT_1726540_1 phases=3 Bus1=barra_at_1726540.1.2.3 Bus2=segm_5144274.1.2.3 Switch=y r1=0.0001 r0=0.0001 x1=0 x0=0 c1=0 c0=0
New Line.BAT_1726540_2 phases=3 Bus1=barra_at_1726540.1.2.3 Bus2=segm_405207688.1.2.3 Switch=y r1=0.0001 r0=0.0001 x1=0 x0=0 c1=0 c0=0
New Line.BAT_1726540_3 phases=3 Bus1=barra_at_1726540.1.2.3 Bus2=segm_10288578.1.2.3 Switch=y r1=0.0001 r0=0.0001 x1=0 x0=0 c1=0 c0=0
New Line.BAT_1726540_4 phases=3 Bus1=barra_at_1726540.1.2.3 Bus2=segm_10288516.1.2.3 Switch=y r1=0.0001 r0=0.0001 x1=0 x0=0 c1=0 c0=0
